
#======================================================================
# CRYSTAL DATA
#----------------------------------------------------------------------
data_VESTA_phase_1

_chemical_name_common                  'urea '
_cell_length_a                         10.000000
_cell_length_b                         10.000000
_cell_length_c                         10.000000
_cell_angle_alpha                      90.000000
_cell_angle_beta                       90.000000
_cell_angle_gamma                      90.000000
_cell_volume                           1000.000000
_space_group_name_H-M_alt              'P 1'
_space_group_IT_number                 1

loop_
_space_group_symop_operation_xyz
   'x, y, z'

loop_
   _atom_site_label
   _atom_site_occupancy
   _atom_site_fract_x
   _atom_site_fract_y
   _atom_site_fract_z
   _atom_site_adp_type
   _atom_site_U_iso_or_equiv
   _atom_site_type_symbol
   H1         1.0     0.471601    -0.403101    -0.409299    Uiso  ? H
   H2         1.0     0.640501    -0.459023    -0.452621    Uiso  ? H
   H3         1.0     0.318776    -0.591579    -0.614212    Uiso  ? H
   H4         1.0     0.309301    -0.535734    -0.441802    Uiso  ? H
   C1         1.0     0.487398    -0.569783    -0.515303    Uiso  ? C
   N1         1.0     0.539240    -0.472030    -0.444896    Uiso  ? N
   N2         1.0     0.356917    -0.583173    -0.519550    Uiso  ? N
   O1         1.0     0.561130    -0.646482    -0.578707    Uiso  ? O
