
#======================================================================
# CRYSTAL DATA
#----------------------------------------------------------------------
data_VESTA_phase_1

_chemical_name_common                  'PBA-Ni-O                              '
_cell_length_a                         14.426100
_cell_length_b                         14.426100
_cell_length_c                         21.000000
_cell_angle_alpha                      90.000000
_cell_angle_beta                       90.000000
_cell_angle_gamma                      90.000000
_cell_volume                           4370.359450
_space_group_name_H-M_alt              'P 1'
_space_group_IT_number                 1

loop_
_space_group_symop_operation_xyz
   'x, y, z'

loop_
   _atom_site_label
   _atom_site_occupancy
   _atom_site_fract_x
   _atom_site_fract_y
   _atom_site_fract_z
   _atom_site_adp_type
   _atom_site_U_iso_or_equiv
   _atom_site_type_symbol
   C1         1.0     0.170900     0.145040     0.089581    Uiso  ? C
   C2         1.0     0.418370     0.384093     0.324701    Uiso  ? C
   C3         1.0     0.354960     0.329100     0.089581    Uiso  ? C
   C4         1.0     0.106604     0.085361     0.339888    Uiso  ? C
   C5         1.0     0.012930     0.487070     0.243055    Uiso  ? C
   C6         1.0     0.262930     0.237070     0.178996    Uiso  ? C
   C7         1.0     0.170900     0.329100     0.089581    Uiso  ? C
   C8         1.0     0.419561     0.083606     0.342127    Uiso  ? C
   C9         1.0     0.354960     0.145040     0.089581    Uiso  ? C
   C10        1.0     0.106067     0.387393     0.342509    Uiso  ? C
   C11        1.0     0.670900     0.145040     0.089581    Uiso  ? C
   C12        1.0     0.916263     0.387181     0.338686    Uiso  ? C
   C13        1.0     0.854960     0.329100     0.089581    Uiso  ? C
   C14        1.0     0.610673     0.084515     0.337888    Uiso  ? C
   C15        1.0     0.513600     0.478417     0.232376    Uiso  ? C
   C16        1.0     0.762930     0.237070     0.178996    Uiso  ? C
   C17        1.0     0.670900     0.329100     0.089581    Uiso  ? C
   C18        1.0     0.916701     0.085899     0.338413    Uiso  ? C
   C19        1.0     0.854960     0.145040     0.089581    Uiso  ? C
   C20        1.0     0.610377     0.383795     0.324163    Uiso  ? C
   C21        1.0     0.170900     0.645040     0.089581    Uiso  ? C
   C22        1.0     0.423132     0.896957     0.342081    Uiso  ? C
   C23        1.0     0.354960     0.829100     0.089581    Uiso  ? C
   C24        1.0     0.104109     0.573889     0.343813    Uiso  ? C
   C25        1.0     0.012930     0.987070     0.243055    Uiso  ? C
   C26        1.0     0.262930     0.737070     0.178996    Uiso  ? C
   C27        1.0     0.170900     0.829100     0.089581    Uiso  ? C
   C28        1.0     0.421351     0.572349     0.324808    Uiso  ? C
   C29        1.0     0.354960     0.645040     0.089581    Uiso  ? C
   C30        1.0     0.103411     0.899394     0.343189    Uiso  ? C
   C31        1.0     0.670900     0.645040     0.089581    Uiso  ? C
   C32        1.0     0.919821     0.898366     0.341940    Uiso  ? C
   C33        1.0     0.854960     0.829100     0.089581    Uiso  ? C
   C34        1.0     0.606837     0.572712     0.324539    Uiso  ? C
   C35        1.0     0.512930     0.987070     0.243055    Uiso  ? C
   C36        1.0     0.762930     0.737070     0.178996    Uiso  ? C
   C37        1.0     0.670900     0.829100     0.089581    Uiso  ? C
   C38        1.0     0.919620     0.575124     0.341584    Uiso  ? C
   C39        1.0     0.854960     0.645040     0.089581    Uiso  ? C
   C40        1.0     0.606774     0.896708     0.340320    Uiso  ? C
   N1         1.0     0.113090     0.386910     0.089581    Uiso  ? N
   N2         1.0     0.359767     0.139151     0.342810    Uiso  ? N
   N3         1.0     0.412770     0.087230     0.089581    Uiso  ? N
   N4         1.0     0.165270     0.331237     0.343309    Uiso  ? N
   N5         1.0     0.113090     0.087230     0.089581    Uiso  ? N
   N6         1.0     0.358917     0.329042     0.329956    Uiso  ? N
   N7         1.0     0.412770     0.386910     0.089581    Uiso  ? N
   N8         1.0     0.166142     0.141138     0.337070    Uiso  ? N
   N9         1.0     0.012930     0.487070     0.186895    Uiso  ? N
   N10        1.0     0.262930     0.237070     0.235156    Uiso  ? N
   N11        1.0     0.613090     0.386910     0.089581    Uiso  ? N
   N12        1.0     0.858283     0.142588     0.335658    Uiso  ? N
   N13        1.0     0.912770     0.087230     0.089581    Uiso  ? N
   N14        1.0     0.669344     0.328302     0.329219    Uiso  ? N
   N15        1.0     0.613090     0.087230     0.089581    Uiso  ? N
   N16        1.0     0.858239     0.330003     0.335858    Uiso  ? N
   N17        1.0     0.912770     0.386910     0.089581    Uiso  ? N
   N18        1.0     0.669363     0.141023     0.335760    Uiso  ? N
   N19        1.0     0.513229     0.484645     0.176878    Uiso  ? N
   N20        1.0     0.762930     0.237070     0.235156    Uiso  ? N
   N21        1.0     0.113090     0.886910     0.089581    Uiso  ? N
   N22        1.0     0.365405     0.630921     0.330007    Uiso  ? N
   N23        1.0     0.412770     0.587230     0.089581    Uiso  ? N
   N24        1.0     0.160331     0.841055     0.342178    Uiso  ? N
   N25        1.0     0.113090     0.587230     0.089581    Uiso  ? N
   N26        1.0     0.366348     0.838464     0.342827    Uiso  ? N
   N27        1.0     0.412770     0.886910     0.089581    Uiso  ? N
   N28        1.0     0.161729     0.631617     0.343182    Uiso  ? N
   N29        1.0     0.012930     0.987070     0.186895    Uiso  ? N
   N30        1.0     0.262930     0.737070     0.235156    Uiso  ? N
   N31        1.0     0.613090     0.886910     0.089581    Uiso  ? N
   N32        1.0     0.863600     0.634181     0.339887    Uiso  ? N
   N33        1.0     0.912770     0.587230     0.089581    Uiso  ? N
   N34        1.0     0.662631     0.837441     0.340267    Uiso  ? N
   N35        1.0     0.613090     0.587230     0.089581    Uiso  ? N
   N36        1.0     0.864044     0.839058     0.340419    Uiso  ? N
   N37        1.0     0.912770     0.886910     0.089581    Uiso  ? N
   N38        1.0     0.662117     0.631840     0.329851    Uiso  ? N
   N39        1.0     0.512930     0.987070     0.186895    Uiso  ? N
   N40        1.0     0.762930     0.737070     0.235156    Uiso  ? N
   Aa1        1.0     0.514209     0.476839     0.323193    Uiso  ? Aa
   Bb1        1.0     0.512992     0.486752     0.087110    Uiso  ? Bb
   Cc1        1.0     0.764260     0.235363     0.327824    Uiso  ? Cc
   Dd1        1.0     0.257156     0.737849     0.327758    Uiso  ? Dd
   Ee1        1.0     0.261854     0.234538     0.329224    Uiso  ? Ee
   Ff1        1.0     0.763885     0.736142     0.327249    Uiso  ? Ff
   Ni1        1.0     0.262930     0.237070     0.089581    Uiso  ? Ni
   Ni2        1.0     0.011354     0.480470     0.335408    Uiso  ? Ni
   Ni3        1.0     0.012930     0.487070     0.089581    Uiso  ? Ni
   Ni4        1.0     0.762930     0.237070     0.089581    Uiso  ? Ni
   Ni5        1.0     0.262930     0.737070     0.089581    Uiso  ? Ni
   Ni6        1.0     0.011711     0.993111     0.334951    Uiso  ? Ni
   Ni7        1.0     0.012930     0.987070     0.089581    Uiso  ? Ni
   Ni8        1.0     0.762930     0.737070     0.089581    Uiso  ? Ni
   Ni9        1.0     0.515051     0.991365     0.334630    Uiso  ? Ni
   Ni10       1.0     0.512930     0.987070     0.089581    Uiso  ? Ni
