#\#CIF_2.0

##########################################################################
#               Crystallographic Information Format file
#               Produced by PyCifRW module
#
#  This is a CIF file.  CIF has been adopted by the International
#  Union of Crystallography as the standard for data archiving and
#  transmission.
#
#  For information on this file format, follow the CIF links at
#  http://www.iucr.org
##########################################################################

data_pwtools

_cell_length_a                          3.0000000000000e+01
_cell_length_b                          3.0000000000000e+01
_cell_length_c                          3.0000000000000e+01
_cell_angle_alpha                       9.0000000000000e+01
_cell_angle_beta                        9.0000000000000e+01
_cell_angle_gamma                       9.0000000000000e+01
_symmetry_space_group_name_H-M          'P 1'
_symmetry_Int_Tables_number             1
_symmetry_equiv_pos_as_xyz ['x,y,z']
loop_
  _atom_site_label
  _atom_site_fract_x
  _atom_site_fract_y
  _atom_site_fract_z
  _atom_site_type_symbol
  _atom_site_charge
         Mn1       7.7100000000000e-01           6.6266666666667e-01           7.4666666666667e-02          Mn       2.000    
         Mn2       9.7500000000000e-01           8.3500000000000e-01           9.9233333333333e-01          Mn       2.000    
         Mn3       6.1100000000000e-01           7.5433333333333e-01           5.6933333333333e-01          Mn       2.000    
         Mn4       7.8666666666667e-01           6.5466666666667e-01           8.7533333333333e-01          Mn       2.000    
         Mn5       9.7266666666667e-01           2.8300000000000e-01           2.1800000000000e-01          Mn       2.000    
         Fe6       5.7666666666667e-01           6.0666666666667e-02           5.5966666666667e-01          Fe       2.000    
         Fe7       4.1433333333333e-01           2.6033333333333e-01           4.7933333333333e-01          Fe       2.000    
         Fe8       4.3100000000000e-01           8.8833333333333e-01           4.7933333333333e-01          Fe       2.000    
         Fe9       3.2566666666667e-01           7.3200000000000e-01           9.1266666666667e-01          Fe       2.000    
         Fe10      5.1500000000000e-01           8.5666666666667e-01           7.8733333333333e-01          Fe       2.000    
         Fe11      4.8133333333333e-01           7.5033333333333e-01           2.2000000000000e-01          Fe       2.000    
         Fe12      3.3333333333332e-03           5.7966666666667e-01           8.0233333333333e-01          Fe       2.000    
         Fe13      6.3366666666667e-01           2.2200000000000e-01           5.4733333333333e-01          Fe       2.000    
         Fe14      4.0366666666667e-01           8.3166666666667e-01           2.8700000000000e-01          Fe       2.000    
         Fe15      4.6333333333333e-02           9.6566666666667e-01           2.8866666666667e-01          Fe       2.000    
         Fe16      8.5000000000000e-01           7.7233333333333e-01           3.4600000000000e-01          Fe       2.000    
         Fe17      3.6100000000000e-01           2.9200000000000e-01           8.5633333333333e-01          Fe       2.000    
         Fe18      5.9800000000000e-01           3.5133333333333e-01           7.9033333333333e-01          Fe       2.000    
         Fe19      8.9433333333333e-01           4.3366666666667e-01           7.6333333333333e-01          Fe       2.000    
         Fe20      9.3000000000000e-01           6.9166666666667e-01           5.9666666666667e-02          Fe       2.000    
         Fe21      3.7400000000000e-01           4.5133333333333e-01           2.6733333333333e-01          Fe       2.000    
         Fe22      8.0000000000000e-02           7.0066666666667e-01           6.7300000000000e-01          Fe       2.000    
         Fe23      2.5433333333333e-01           9.3733333333333e-01           1.4600000000000e-01          Fe       2.000    
         Co24      5.1500000000000e-01           7.3633333333333e-01           4.6333333333333e-01          Co       2.000    
         Co25      2.1200000000000e-01           8.3733333333333e-01           2.8333333333333e-02          Co       2.000    
         Co26      7.0000000000000e-02           1.3500000000000e-01           1.5133333333333e-01          Co       2.000    
         Co27      7.3900000000000e-01           4.5666666666667e-02           1.9000000000000e-01          Co       2.000    
         Co28      2.1300000000000e-01           7.3866666666667e-01           4.2466666666667e-01          Co       2.000    
         Co29      9.4466666666667e-01           7.5366666666667e-01           1.6633333333333e-01          Co       2.000    
         Co30      7.1800000000000e-01           7.1900000000000e-01           9.2000000000000e-01          Co       2.000    
         Co31      2.9933333333333e-01           8.9300000000000e-01           8.4700000000000e-01          Co       2.000    
         Co32      1.3166666666667e-01           6.2900000000000e-01           6.7400000000000e-01          Co       2.000    
         Co33      4.8533333333333e-01           4.2566666666667e-01           5.5966666666667e-01          Co       2.000    
         Co34      8.6400000000000e-01           2.8933333333333e-01           5.8933333333333e-01          Co       2.000    
         Co35      3.7833333333333e-01           9.5000000000000e-02           5.0866666666667e-01          Co       2.000    
         Co36      6.9133333333333e-01           3.9666666666667e-01           2.8366666666667e-01          Co       2.000    
         Co37      5.9200000000000e-01           8.0633333333333e-01           6.9500000000000e-01          Co       2.000    
         Co38      4.2133333333333e-01           8.5566666666667e-01           3.8966666666667e-01          Co       2.000    
         Co39      7.5200000000000e-01           2.7000000000000e-02           3.7933333333333e-01          Co       2.000    
         Co40      6.9333333333333e-01           9.7600000000000e-01           2.9766666666667e-01          Co       2.000    
         Co41      3.5766666666667e-01           5.8366666666667e-01           2.0300000000000e-01          Co       2.000    
         Ni42      9.9000000000000e-02           9.4133333333333e-01           2.8100000000000e-01          Ni       2.000    
         Ni43      8.1933333333333e-01           3.5800000000000e-01           5.1300000000000e-01          Ni       2.000    
         Ni44      9.7033333333333e-01           8.0466666666667e-01           9.1400000000000e-01          Ni       2.000    
         Ni45      2.6433333333333e-01           5.9266666666667e-01           5.0066666666667e-01          Ni       2.000    
         Zn46      4.8766666666667e-01           6.3566666666667e-01           7.5000000000000e-01          Zn       2.000    
         Zn47      4.5666666666667e-01           4.1700000000000e-01           8.8366666666667e-01          Zn       2.000    
         Zn48      8.9766666666667e-01           2.4666666666667e-01           6.9900000000000e-01          Zn       2.000    
         Zn49      7.2933333333333e-01           6.5600000000000e-01           7.1133333333333e-01          Zn       2.000    
         Zn50      6.2633333333333e-01           4.7500000000000e-01           3.2266666666667e-01          Zn       2.000    
         Zn51      5.3766666666667e-01           1.7266666666667e-01           5.1333333333333e-01          Zn       2.000    
         Zn52      2.7666666666667e-01           6.9533333333333e-01           1.4333333333333e-01          Zn       2.000    
         Zn53      9.9633333333333e-01           8.6566666666667e-01           2.4966666666667e-01          Zn       2.000    
         Zn54      2.7900000000000e-01           5.1366666666667e-01           4.5366666666667e-01          Zn       2.000    
         Zn55      7.5333333333333e-01           2.9400000000000e-01           5.1866666666667e-01          Zn       2.000    
         Zn56      2.6600000000000e-01           7.5600000000000e-01           4.9133333333333e-01          Zn       2.000    
         Zn57      2.6600000000000e-01           7.3700000000000e-01           8.5800000000000e-01          Zn       2.000    
         Zn58      2.1766666666667e-01           3.6533333333333e-01           9.7266666666667e-01          Zn       2.000    
         Zn59      8.7200000000000e-01           6.1333333333333e-01           6.8266666666667e-01          Zn       2.000    
         Zn60      2.8833333333333e-01           5.4300000000000e-01           7.6200000000000e-01          Zn       2.000    
         N61       3.4200000000000e-01           5.6000000000000e-01           4.3000000000000e-01          N        -0.490   
         N62       2.4533333333333e-01           6.1333333333333e-01           3.3433333333333e-01          N        -0.490   
         N63       4.5066666666667e-01           5.9266666666667e-01           3.3833333333333e-01          N        -0.490   
         N64       3.5666666666667e-01           6.9633333333333e-01           3.7966666666667e-01          N        -0.490   
         N65       3.3933333333333e-01           5.0966666666667e-01           2.9300000000000e-01          N        -0.490   
         N66       3.5433333333333e-01           6.4600000000000e-01           2.4266666666667e-01          N        -0.490   
         C67       3.4433333333333e-01           5.7633333333333e-01           3.9433333333333e-01          C        -0.510   
         C68       3.5333333333333e-01           6.6100000000000e-01           3.6333333333333e-01          C        -0.510   
         C69       2.8433333333333e-01           6.0933333333333e-01           3.3500000000000e-01          C        -0.510   
         C70       4.1200000000000e-01           5.9666666666667e-01           3.3766666666667e-01          C        -0.510   
         C71       3.4266666666667e-01           5.4500000000000e-01           3.0933333333333e-01          C        -0.510   
         C72       3.5200000000000e-01           6.2966666666667e-01           2.7800000000000e-01          C        -0.510   
         Co73      3.4800000000000e-01           6.0300000000000e-01           3.3633333333333e-01          Co       3.000    
         N74       7.3333333333333e-02           6.7333333333333e-02           1.5666666666667e-01          N        -0.490   
         N75       1.1533333333333e-01           1.4566666666667e-01           4.1000000000000e-02          N        -0.490   
         N76       6.0666666666667e-02           -5.1000000000000e-02          7.2000000000000e-02          N        -0.490   
         N77       1.8633333333333e-01           2.3000000000000e-02           7.5666666666667e-02          N        -0.490   
         N78       -1.0666666666667e-02          7.1666666666667e-02           3.7333333333333e-02          N        -0.490   
         N79       1.0233333333333e-01           2.7333333333333e-02           -4.3666666666667e-02         N        -0.490   
         C80       7.9000000000000e-02           5.9666666666667e-02           1.1866666666667e-01          C        -0.510   
         C81       1.4900000000000e-01           3.2333333333333e-02           6.8333333333333e-02          C        -0.510   
         C82       1.0500000000000e-01           1.0833333333333e-01           4.7000000000000e-02          C        -0.510   
         C83       7.1000000000000e-02           -1.3666666666667e-02          6.6333333333333e-02          C        -0.510   
         C84       2.6666666666667e-02           6.2333333333333e-02           4.4666666666667e-02          C        -0.510   
         C85       9.7000000000000e-02           3.5000000000000e-02           -5.6666666666667e-03         C        -0.510   
         Co86      8.8000000000000e-02           4.7333333333333e-02           5.6666666666667e-02          Co       3.000    
         N87       3.0266666666667e-01           1.2933333333333e-01           1.0733333333333e-01          N        -0.490   
         N88       3.2166666666667e-01           1.9666666666667e-02           2.0200000000000e-01          N        -0.490   
         N89       3.0466666666667e-01           2.2466666666667e-01           2.1766666666667e-01          N        -0.490   
         N90       4.1533333333333e-01           1.3133333333333e-01           2.0000000000000e-01          N        -0.490   
         N91       2.1066666666667e-01           1.1266666666667e-01           2.1966666666667e-01          N        -0.490   
         N92       3.2366666666667e-01           1.1500000000000e-01           3.1233333333333e-01          N        -0.490   
         C93       3.0666666666667e-01           1.2666666666667e-01           1.4633333333333e-01          C        -0.510   
         C94       3.7666666666667e-01           1.2800000000000e-01           2.0366666666667e-01          C        -0.510   
         C95       3.1833333333333e-01           5.8333333333333e-02           2.0500000000000e-01          C        -0.510   
         C96       3.0766666666667e-01           1.8566666666667e-01           2.1466666666667e-01          C        -0.510   
         C97       2.4966666666667e-01           1.1633333333333e-01           2.1600000000000e-01          C        -0.510   
         C98       3.1966666666667e-01           1.1766666666667e-01           2.7333333333333e-01          C        -0.510   
         Co99      3.1300000000000e-01           1.2200000000000e-01           2.1000000000000e-01          Co       3.000    
         N100      9.2966666666667e-01           9.2666666666667e-02           2.9200000000000e-01          N        -0.490   
         N101      9.4100000000000e-01           7.8333333333333e-02           4.3666666666667e-01          N        -0.490   
         N102      8.4133333333333e-01           2.0733333333333e-01           3.1000000000000e-01          N        -0.490   
         N103      9.7266666666667e-01           2.0600000000000e-01           3.7333333333333e-01          N        -0.490   
         N104      8.0933333333333e-01           7.9666666666667e-02           3.7366666666667e-01          N        -0.490   
         N105      8.5266666666667e-01           1.9300000000000e-01           4.5500000000000e-01          N        -0.490   
         C106      9.1500000000000e-01           1.1166666666667e-01           3.2266666666667e-01          C        -0.510   
         C107      9.4166666666667e-01           1.8200000000000e-01           3.7333333333333e-01          C        -0.510   
         C108      9.2200000000000e-01           1.0266666666667e-01           4.1266666666667e-01          C        -0.510   
         C109      8.6000000000000e-01           1.8300000000000e-01           3.3400000000000e-01          C        -0.510   
         C110      8.4033333333333e-01           1.0366666666667e-01           3.7366666666667e-01          C        -0.510   
         C111      8.6700000000000e-01           1.7400000000000e-01           4.2400000000000e-01          C        -0.510   
         Co112     8.9100000000000e-01           1.4300000000000e-01           3.7333333333333e-01          Co       3.000    
         N113      8.6200000000000e-01           9.2033333333333e-01           8.1000000000000e-01          N        -0.490   
         N114      7.2800000000000e-01           9.0300000000000e-01           8.6466666666667e-01          N        -0.490   
         N115      8.7233333333333e-01           1.0496666666667e+00           8.7666666666667e-01          N        -0.490   
         N116      8.4000000000000e-01           9.3033333333333e-01           9.5400000000000e-01          N        -0.490   
         N117      7.6033333333333e-01           1.0226666666667e+00           7.8733333333333e-01          N        -0.490   
         N118      7.3833333333333e-01           1.0323333333333e+00           9.3133333333333e-01          N        -0.490   
         C119      8.3866666666667e-01           9.4166666666667e-01           8.3300000000000e-01          C        -0.510   
         C120      8.2500000000000e-01           9.4766666666667e-01           9.2233333333333e-01          C        -0.510   
         C121      7.5533333333333e-01           9.3066666666667e-01           8.6666666666667e-01          C        -0.510   
         C122      8.4500000000000e-01           1.0220000000000e+00           8.7433333333333e-01          C        -0.510   
         C123      7.7533333333333e-01           1.0050000000000e+00           8.1900000000000e-01          C        -0.510   
         C124      7.6166666666667e-01           1.0113333333333e+00           9.0833333333333e-01          C        -0.510   
         Co125     8.0033333333333e-01           9.7633333333333e-01           8.7066666666667e-01          Co       3.000    
         N126      5.2966666666667e-01           5.7233333333333e-01           1.3000000000000e-02          N        -0.490   
         N127      4.3966666666667e-01           5.0033333333333e-01           1.0233333333333e-01          N        -0.490   
         N128      5.7066666666667e-01           4.4600000000000e-01           -4.7333333333333e-02         N        -0.490   
         N129      4.2933333333333e-01           4.8166666666667e-01           -4.2000000000000e-02         N        -0.490   
         N130      5.8100000000000e-01           4.6500000000000e-01           9.7333333333333e-02          N        -0.490   
         N131      4.8066666666667e-01           3.7400000000000e-01           4.2333333333333e-02          N        -0.490   
         C132      5.2033333333333e-01           5.3466666666667e-01           1.8666666666667e-02          C        -0.510   
         C133      4.5800000000000e-01           4.7833333333333e-01           -1.5666666666667e-02         C        -0.510   
         C134      4.6433333333333e-01           4.9000000000000e-01           7.4000000000000e-02          C        -0.510   
         C135      5.4600000000000e-01           4.5633333333333e-01           -1.8666666666667e-02         C        -0.510   
         C136      5.5233333333333e-01           4.6800000000000e-01           7.1000000000000e-02          C        -0.510   
         C137      4.9000000000000e-01           4.1166666666667e-01           3.6666666666667e-02          C        -0.510   
         Co138     5.0500000000000e-01           4.7333333333333e-01           2.7666666666667e-02          Co       3.000    
         N139      8.4533333333333e-01           9.1700000000000e-01           5.1533333333333e-01          N        -0.490   
         N140      7.7700000000000e-01           7.8800000000000e-01           5.2400000000000e-01          N        -0.490   
         N141      7.7433333333333e-01           9.6233333333333e-01           6.3466666666667e-01          N        -0.490   
         N142      8.5200000000000e-01           8.3900000000000e-01           6.3833333333333e-01          N        -0.490   
         N143      6.9933333333333e-01           9.1166666666667e-01           5.2000000000000e-01          N        -0.490   
         N144      7.0633333333333e-01           8.3366666666667e-01           6.4333333333333e-01          N        -0.490   
         C145      8.1900000000000e-01           9.0100000000000e-01           5.3966666666667e-01          C        -0.510   
         C146      8.2333333333333e-01           8.5266666666667e-01           6.1600000000000e-01          C        -0.510   
         C147      7.7666666666667e-01           8.2100000000000e-01           5.4500000000000e-01          C        -0.510   
         C148      7.7500000000000e-01           9.2933333333333e-01           6.1366666666667e-01          C        -0.510   
         C149      7.2833333333333e-01           8.9766666666667e-01           5.4266666666667e-01          C        -0.510   
         C150      7.3266666666667e-01           8.4933333333333e-01           6.1900000000000e-01          C        -0.510   
         Co151     7.7566666666667e-01           8.7533333333333e-01           5.7933333333333e-01          Co       3.000    
         N152      2.5833333333333e-01           8.1433333333333e-01           1.0933333333333e-01          N        -0.490   
         N153      3.2400000000000e-01           9.3266666666667e-01           5.5333333333333e-02          N        -0.490   
         N154      3.8733333333333e-01           7.4666666666667e-01           1.1900000000000e-01          N        -0.490   
         N155      3.6800000000000e-01           8.7666666666667e-01           1.8266666666667e-01          N        -0.490   
         N156      3.4333333333333e-01           8.0300000000000e-01           -8.6666666666667e-03         N        -0.490   
         N157      4.5300000000000e-01           8.6533333333333e-01           6.5000000000000e-02          N        -0.490   
         C158      2.9500000000000e-01           8.2400000000000e-01           1.0100000000000e-01          C        -0.510   
         C159      3.6333333333333e-01           8.6266666666667e-01           1.4666666666667e-01          C        -0.510   
         C160      3.3600000000000e-01           8.9766666666667e-01           6.7333333333333e-02          C        -0.510   
         C161      3.7533333333333e-01           7.8200000000000e-01           1.0700000000000e-01          C        -0.510   
         C162      3.4800000000000e-01           8.1700000000000e-01           2.7666666666667e-02          C        -0.510   
         C163      4.1633333333333e-01           8.5566666666667e-01           7.3333333333333e-02          C        -0.510   
         Co164     3.5566666666667e-01           8.3966666666667e-01           8.7000000000000e-02          Co       3.000    
         N165      5.7966666666667e-01           6.7333333333333e-01           3.6766666666667e-01          N        -0.490   
         N166      7.0666666666667e-01           6.8666666666667e-01           2.9700000000000e-01          N        -0.490   
         N167      6.2800000000000e-01           7.6400000000000e-01           4.7133333333333e-01          N        -0.490   
         N168      6.2966666666667e-01           8.0566666666667e-01           3.3133333333333e-01          N        -0.490   
         N169      7.0500000000000e-01           6.4500000000000e-01           4.3666666666667e-01          N        -0.490   
         N170      7.5500000000000e-01           7.7733333333333e-01           4.0066666666667e-01          N        -0.490   
         C171      6.1300000000000e-01           6.9300000000000e-01           3.7400000000000e-01          C        -0.510   
         C172      6.4400000000000e-01           7.7533333333333e-01           3.5133333333333e-01          C        -0.510   
         C173      6.9200000000000e-01           7.0133333333333e-01           3.3000000000000e-01          C        -0.510   
         C174      6.4300000000000e-01           7.4933333333333e-01           4.3833333333333e-01          C        -0.510   
         C175      6.9100000000000e-01           6.7533333333333e-01           4.1700000000000e-01          C        -0.510   
         C176      7.2200000000000e-01           7.5766666666667e-01           3.9433333333333e-01          C        -0.510   
         Co177     6.6733333333333e-01           7.2533333333333e-01           3.8400000000000e-01          Co       3.000    
         N178      8.0633333333333e-01           5.1066666666667e-01           8.9066666666667e-01          N        -0.490   
         N179      8.6800000000000e-01           4.8566666666667e-01           1.0203333333333e+00          N        -0.490   
         N180      7.5066666666667e-01           3.7566666666667e-01           8.9066666666667e-01          N        -0.490   
         N181      7.2433333333333e-01           4.6566666666667e-01           1.0026666666667e+00          N        -0.490   
         N182      8.9433333333333e-01           3.9566666666667e-01           9.0833333333333e-01          N        -0.490   
         N183      8.1233333333333e-01           3.5066666666667e-01           1.0206666666667e+00          N        -0.490   
         C184      8.0733333333333e-01           4.8033333333333e-01           9.1533333333333e-01          C        -0.510   
         C185      7.5666666666667e-01           4.5233333333333e-01           9.8500000000000e-01          C        -0.510   
         C186      8.4566666666667e-01           4.6466666666667e-01           9.9566666666667e-01          C        -0.510   
         C187      7.7300000000000e-01           3.9666666666667e-01           9.1533333333333e-01          C        -0.510   
         C188      8.6200000000000e-01           4.0900000000000e-01           9.2633333333333e-01          C        -0.510   
         C189      8.1133333333333e-01           3.8100000000000e-01           9.9600000000000e-01          C        -0.510   
         Co190     8.0933333333333e-01           4.3066666666667e-01           9.5566666666667e-01          Co       3.000    
         N191      5.8400000000000e-01           8.2666666666667e-02           6.9666666666667e-02          N        -0.490   
         N192      6.2266666666667e-01           2.1600000000000e-01           1.1500000000000e-01          N        -0.490   
         N193      4.5166666666667e-01           1.0133333333333e-01           1.2766666666667e-01          N        -0.490   
         N194      5.0366666666667e-01           1.9866666666667e-01           3.2000000000000e-02          N        -0.490   
         N195      5.7066666666667e-01           1.1900000000000e-01           2.1066666666667e-01          N        -0.490   
         N196      4.9033333333333e-01           2.3500000000000e-01           1.7300000000000e-01          N        -0.490   
         C197      5.6633333333333e-01           1.1133333333333e-01           8.9333333333333e-02          C        -0.510   
         C198      5.1633333333333e-01           1.8333333333333e-01           6.6000000000000e-02          C        -0.510   
         C199      5.9033333333333e-01           1.9433333333333e-01           1.1733333333333e-01          C        -0.510   
         C200      4.8400000000000e-01           1.2333333333333e-01           1.2533333333333e-01          C        -0.510   
         C201      5.5800000000000e-01           1.3400000000000e-01           1.7666666666667e-01          C        -0.510   
         C202      5.0800000000000e-01           2.0600000000000e-01           1.5333333333333e-01          C        -0.510   
         Co203     5.3700000000000e-01           1.5866666666667e-01           1.2133333333333e-01          Co       3.000    
         N204      1.2100000000000e-01           1.9566666666667e-01           2.9800000000000e-01          N        -0.490   
         N205      2.5066666666667e-01           1.2900000000000e-01           2.9533333333333e-01          N        -0.490   
         N206      1.7500000000000e-01           2.9766666666667e-01           3.8766666666667e-01          N        -0.490   
         N207      2.4033333333333e-01           2.7033333333333e-01           2.6000000000000e-01          N        -0.490   
         N208      1.8533333333333e-01           1.5633333333333e-01           4.2300000000000e-01          N        -0.490   
         N209      3.0466666666667e-01           2.3100000000000e-01           3.8500000000000e-01          N        -0.490   
         C210      1.5566666666667e-01           2.0233333333333e-01           3.1466666666667e-01          C        -0.510   
         C211      2.3000000000000e-01           2.4866666666667e-01           2.9100000000000e-01          C        -0.510   
         C212      2.3633333333333e-01           1.6100000000000e-01           3.1300000000000e-01          C        -0.510   
         C213      1.8933333333333e-01           2.6566666666667e-01           3.7000000000000e-01          C        -0.510   
         C214      1.9566666666667e-01           1.7800000000000e-01           3.9200000000000e-01          C        -0.510   
         C215      2.7000000000000e-01           2.2433333333333e-01           3.6866666666667e-01          C        -0.510   
         Co216     2.1266666666667e-01           2.1333333333333e-01           3.4166666666667e-01          Co       3.000    
         N217      5.7666666666667e-02           9.0466666666667e-01           5.7333333333333e-01          N        -0.490   
         N218      1.3166666666667e-01           9.4666666666667e-01           6.9200000000000e-01          N        -0.490   
         N219      -5.8333333333333e-02          9.8066666666667e-01           6.1866666666667e-01          N        -0.490   
         N220      7.1000000000000e-02           1.0466666666667e+00           6.0466666666667e-01          N        -0.490   
         N221      2.3333333333332e-03           8.8066666666667e-01           7.0600000000000e-01          N        -0.490   
         N222      1.5666666666667e-02           1.0226666666667e+00           7.3733333333333e-01          N        -0.490   
         C223      4.9666666666667e-02           9.2700000000000e-01           6.0433333333333e-01          C        -0.510   
         C224      5.8000000000000e-02           1.0153333333333e+00           6.2366666666667e-01          C        -0.510   
         C225      9.5666666666667e-02           9.5300000000000e-01           6.7800000000000e-01          C        -0.510   
         C226      -2.2333333333333e-02          9.7433333333333e-01           6.3266666666667e-01          C        -0.510   
         C227      1.5333333333333e-02           9.1200000000000e-01           6.8666666666667e-01          C        -0.510   
         C228      2.3666666666667e-02           1.0003333333333e+00           7.0633333333333e-01          C        -0.510   
         Co229     3.6666666666667e-02           9.6366666666667e-01           6.5533333333333e-01          Co       3.000    
         N230      4.6200000000000e-01           5.5366666666667e-01           7.2700000000000e-01          N        -0.490   
         N231      3.2866666666667e-01           5.3266666666667e-01           6.7133333333333e-01          N        -0.490   
         N232      4.2100000000000e-01           6.8466666666667e-01           7.7633333333333e-01          N        -0.490   
         N233      3.4433333333333e-01           5.6566666666667e-01           8.1266666666667e-01          N        -0.490   
         N234      4.0500000000000e-01           6.5166666666667e-01           6.3500000000000e-01          N        -0.490   
         N235      2.8766666666667e-01           6.6366666666667e-01           7.2066666666667e-01          N        -0.490   
         C236      4.2900000000000e-01           5.7433333333333e-01           7.2566666666667e-01          C        -0.510   
         C237      3.5600000000000e-01           5.8200000000000e-01           7.7900000000000e-01          C        -0.510   
         C238      3.4633333333333e-01           5.6166666666667e-01           6.9133333333333e-01          C        -0.510   
         C239      4.0333333333333e-01           6.5600000000000e-01           7.5666666666667e-01          C        -0.510   
         C240      3.9366666666667e-01           6.3533333333333e-01           6.6866666666667e-01          C        -0.510   
         C241      3.2066666666667e-01           6.4300000000000e-01           7.2200000000000e-01          C        -0.510   
         Co242     3.7466666666667e-01           6.0866666666667e-01           7.2400000000000e-01          Co       3.000    
         N243      1.0050000000000e+00           1.0600000000000e-01           2.3233333333333e-01          N        -0.490   
         N244      8.8633333333333e-01           1.6666666666667e-01           1.7266666666667e-01          N        -0.490   
         N245      1.0176666666667e+00           1.7333333333333e-02           1.1666666666667e-01          N        -0.490   
         N246      1.0116666666667e+00           1.6200000000000e-01           9.7666666666667e-02          N        -0.490   
         N247      8.9233333333333e-01           2.2000000000000e-02           1.9166666666667e-01          N        -0.490   
         N248      8.9900000000000e-01           7.8333333333333e-02           5.7333333333333e-02          N        -0.490   
         C249      9.8500000000000e-01           1.0066666666667e-01           1.9900000000000e-01          C        -0.510   
         C250      9.8900000000000e-01           1.3566666666667e-01           1.1566666666667e-01          C        -0.510   
         C251      9.1133333333333e-01           1.3833333333333e-01           1.6200000000000e-01          C        -0.510   
         C252      9.9266666666667e-01           4.5666666666667e-02           1.2733333333333e-01          C        -0.510   
         C253      9.1500000000000e-01           4.8666666666667e-02           1.7400000000000e-01          C        -0.510   
         C254      9.1900000000000e-01           8.3666666666667e-02           9.0333333333333e-02          C        -0.510   
         Co255     9.5200000000000e-01           9.2000000000000e-02           1.4466666666667e-01          Co       3.000    
         N256      1.6333333333333e-01           4.9933333333333e-01           9.8633333333333e-01          N        -0.490   
         N257      1.5566666666667e-01           5.0566666666667e-01           8.4066666666667e-01          N        -0.490   
         N258      3.2666666666667e-02           4.3433333333333e-01           9.9033333333333e-01          N        -0.490   
         N259      1.4000000000000e-01           3.7766666666667e-01           9.0900000000000e-01          N        -0.490   
         N260      4.8333333333333e-02           5.6233333333333e-01           9.2200000000000e-01          N        -0.490   
         N261      2.5000000000000e-02           4.4066666666667e-01           8.4466666666667e-01          N        -0.490   
         C262      1.3700000000000e-01           4.8833333333333e-01           9.5933333333333e-01          C        -0.510   
         C263      1.2266666666667e-01           4.1266666666667e-01           9.1133333333333e-01          C        -0.510   
         C264      1.3233333333333e-01           4.9233333333333e-01           8.6900000000000e-01          C        -0.510   
         C265      5.6000000000000e-02           4.4766666666667e-01           9.6200000000000e-01          C        -0.510   
         C266      6.5666666666667e-02           5.2733333333333e-01           9.1933333333333e-01          C        -0.510   
         C267      5.1333333333333e-02           4.5166666666667e-01           8.7133333333333e-01          C        -0.510   
         Co268     9.4000000000000e-02           4.7000000000000e-01           9.1533333333333e-01          Co       3.000    
         N269      8.0600000000000e-01           8.4166666666667e-01           2.5566666666667e-01          N        -0.490   
         N270      8.3800000000000e-01           9.4600000000000e-01           1.5866666666667e-01          N        -0.490   
         N271      9.1966666666667e-01           8.8300000000000e-01           3.3733333333333e-01          N        -0.490   
         N272      8.1833333333333e-01           9.8066666666667e-01           2.9900000000000e-01          N        -0.490   
         N273      9.3966666666667e-01           8.4833333333333e-01           1.9700000000000e-01          N        -0.490   
         N274      9.5166666666667e-01           9.8733333333333e-01           2.4033333333333e-01          N        -0.490   
         C275      8.3366666666667e-01           8.6933333333333e-01           2.5266666666667e-01          C        -0.510   
         C276      8.4133333333333e-01           9.5566666666667e-01           2.7966666666667e-01          C        -0.510   
         C277      8.5366666666667e-01           9.3400000000000e-01           1.9233333333333e-01          C        -0.510   
         C278      9.0400000000000e-01           8.9500000000000e-01           3.0366666666667e-01          C        -0.510   
         C279      9.1666666666667e-01           8.7333333333333e-01           2.1633333333333e-01          C        -0.510   
         C280      9.2400000000000e-01           9.5966666666667e-01           2.4333333333333e-01          C        -0.510   
         Co281     8.7900000000000e-01           9.1433333333333e-01           2.4800000000000e-01          Co       3.000    
         N282      1.9333333333333e-01           3.2966666666667e-01           2.3700000000000e-01          N        -0.490   
         N283      6.6000000000000e-02           3.4166666666667e-01           1.6666666666667e-01          N        -0.490   
         N284      1.6733333333333e-01           4.5566666666667e-01           3.0600000000000e-01          N        -0.490   
         N285      6.9666666666667e-02           3.4733333333333e-01           3.1233333333333e-01          N        -0.490   
         N286      1.6366666666667e-01           4.5000000000000e-01           1.6000000000000e-01          N        -0.490   
         N287      4.0000000000000e-02           4.6766666666667e-01           2.3533333333333e-01          N        -0.490   
         C288      1.6433333333333e-01           3.5600000000000e-01           2.3666666666667e-01          C        -0.510   
         C289      8.7333333333333e-02           3.6666666666667e-01           2.8366666666667e-01          C        -0.510   
         C290      8.5333333333333e-02           3.6333333333333e-01           1.9300000000000e-01          C        -0.510   
         C291      1.4800000000000e-01           4.3400000000000e-01           2.7966666666667e-01          C        -0.510   
         C292      1.4566666666667e-01           4.3066666666667e-01           1.8900000000000e-01          C        -0.510   
         C293      6.9000000000000e-02           4.4166666666667e-01           2.3566666666667e-01          C        -0.510   
         Co294     1.1666666666667e-01           3.9866666666667e-01           2.3633333333333e-01          Co       3.000    
         N295      8.0333333333333e-01           7.2166666666667e-01           8.0233333333333e-01          N        -0.490   
         N296      9.3533333333333e-01           6.7800000000000e-01           8.4666666666667e-01          N        -0.490   
         N297      8.4366666666667e-01           7.0333333333333e-01           6.6333333333333e-01          N        -0.490   
         N298      8.5633333333333e-01           5.9300000000000e-01           7.5833333333333e-01          N        -0.490   
         N299      9.2266666666667e-01           7.8833333333333e-01           7.5166666666667e-01          N        -0.490   
         N300      9.7566666666667e-01           6.5966666666667e-01           7.0766666666667e-01          N        -0.490   
         C301      8.3600000000000e-01           7.1000000000000e-01           7.8433333333333e-01          C        -0.510   
         C302      8.6866666666667e-01           6.3000000000000e-01           7.5700000000000e-01          C        -0.510   
         C303      9.1800000000000e-01           6.8300000000000e-01           8.1200000000000e-01          C        -0.510   
         C304      8.6100000000000e-01           6.9833333333333e-01           6.9800000000000e-01          C        -0.510   
         C305      9.1000000000000e-01           7.5133333333333e-01           7.5300000000000e-01          C        -0.510   
         C306      9.4300000000000e-01           6.7133333333333e-01           7.2566666666667e-01          C        -0.510   
         Co307     8.8933333333333e-01           6.9066666666667e-01           7.5500000000000e-01          Co       3.000    
         N308      2.3733333333333e-01           9.6600000000000e-01           6.8400000000000e-01          N        -0.490   
         N309      1.1233333333333e-01           8.9100000000000e-01           6.8733333333333e-01          N        -0.490   
         N310      3.1266666666667e-01           8.4100000000000e-01           6.7933333333333e-01          N        -0.490   
         N311      2.0866666666667e-01           8.6766666666667e-01           5.8000000000000e-01          N        -0.490   
         N312      2.1633333333333e-01           8.6433333333333e-01           7.8633333333333e-01          N        -0.490   
         N313      1.8733333333333e-01           7.6566666666667e-01           6.8266666666667e-01          N        -0.490   
         C314      2.2800000000000e-01           9.2800000000000e-01           6.8366666666667e-01          C        -0.510   
         C315      2.1000000000000e-01           8.6700000000000e-01           6.1933333333333e-01          C        -0.510   
         C316      1.5033333333333e-01           8.8133333333333e-01           6.8566666666667e-01          C        -0.510   
         C317      2.7466666666667e-01           8.5033333333333e-01           6.8066666666667e-01          C        -0.510   
         C318      2.1466666666667e-01           8.6500000000000e-01           7.4733333333333e-01          C        -0.510   
         C319      1.9700000000000e-01           8.0366666666667e-01           6.8266666666667e-01          C        -0.510   
         Co320     2.1233333333333e-01           8.6600000000000e-01           6.8333333333333e-01          Co       3.000    
         N321      -2.4666666666667e-02          1.5300000000000e-01           8.9233333333333e-01          N        -0.490   
         N322      9.8333333333333e-02           8.8000000000000e-02           8.4833333333333e-01          N        -0.490   
         N323      4.7333333333333e-02           2.7900000000000e-01           9.0766666666667e-01          N        -0.490   
         N324      5.1000000000000e-02           2.0800000000000e-01           7.8033333333333e-01          N        -0.490   
         N325      9.4666666666667e-02           1.5900000000000e-01           9.7600000000000e-01          N        -0.490   
         N326      1.7033333333333e-01           2.1400000000000e-01           8.6366666666667e-01          N        -0.490   
         C327      1.2333333333333e-02           1.6466666666667e-01           8.8700000000000e-01          C        -0.510   
         C328      5.9333333333333e-02           1.9866666666667e-01           8.1733333333333e-01          C        -0.510   
         C329      8.8666666666667e-02           1.2400000000000e-01           8.5966666666667e-01          C        -0.510   
         C330      5.7000000000000e-02           2.4266666666667e-01           8.9633333333333e-01          C        -0.510   
         C331      8.6333333333333e-02           1.6833333333333e-01           9.3900000000000e-01          C        -0.510   
         C332      1.3333333333333e-01           2.0233333333333e-01           8.6933333333333e-01          C        -0.510   
         Co333     7.2666666666667e-02           1.8333333333333e-01           8.7800000000000e-01          Co       3.000    
         N334      2.6600000000000e-01           3.2600000000000e-01           5.6100000000000e-01          N        -0.490   
         N335      3.8233333333333e-01           4.0733333333333e-01           5.9433333333333e-01          N        -0.490   
         N336      2.2500000000000e-01           4.2466666666667e-01           4.6166666666667e-01          N        -0.490   
         N337      3.5900000000000e-01           3.6666666666667e-01           4.5600000000000e-01          N        -0.490   
         N338      2.4866666666667e-01           4.6533333333333e-01           6.0000000000000e-01          N        -0.490   
         N339      3.4133333333333e-01           5.0633333333333e-01           4.9500000000000e-01          N        -0.490   
         C340      2.8033333333333e-01           3.6000000000000e-01           5.4833333333333e-01          C        -0.510   
         C341      3.3800000000000e-01           3.8533333333333e-01           4.8333333333333e-01          C        -0.510   
         C342      3.5266666666667e-01           4.1066666666667e-01           5.6900000000000e-01          C        -0.510   
         C343      2.5466666666667e-01           4.2166666666667e-01           4.8700000000000e-01          C        -0.510   
         C344      2.6933333333333e-01           4.4666666666667e-01           5.7266666666667e-01          C        -0.510   
         C345      3.2700000000000e-01           4.7200000000000e-01           5.0766666666667e-01          C        -0.510   
         Co346     3.0366666666667e-01           4.1600000000000e-01           5.2800000000000e-01          Co       3.000    
         N347      8.2600000000000e-01           6.8700000000000e-01           2.2666666666667e-02          N        -0.490   
         N348      7.8933333333333e-01           5.4733333333333e-01           4.3000000000000e-02          N        -0.490   
         N349      9.6600000000000e-01           6.4800000000000e-01           8.3333333333333e-03          N        -0.490   
         N350      8.6400000000000e-01           5.8633333333333e-01           -7.6000000000000e-02         N        -0.490   
         N351      8.9133333333333e-01           6.0866666666667e-01           1.2733333333333e-01          N        -0.490   
         N352      9.2933333333333e-01           5.0833333333333e-01           2.8333333333333e-02          N        -0.490   
         C353      8.4566666666667e-01           6.5300000000000e-01           2.3666666666667e-02          C        -0.510   
         C354      8.6933333333333e-01           5.9066666666667e-01           -3.7666666666667e-02         C        -0.510   
         C355      8.2300000000000e-01           5.6633333333333e-01           3.6333333333333e-02          C        -0.510   
         C356      9.3266666666667e-01           6.2900000000000e-01           1.4666666666667e-02          C        -0.510   
         C357      8.8633333333333e-01           6.0466666666667e-01           8.8666666666667e-02          C        -0.510   
         C358      9.0966666666667e-01           5.4200000000000e-01           2.7333333333333e-02          C        -0.510   
         Co359     8.7766666666667e-01           5.9766666666667e-01           2.5666666666667e-02          Co       3.000    
         N360      6.8466666666667e-01           2.3400000000000e-01           6.4466666666667e-01          N        -0.490   
         N361      6.9933333333333e-01           3.5800000000000e-01           7.2033333333333e-01          N        -0.490   
         N362      7.1633333333333e-01           1.5733333333333e-01           7.6466666666667e-01          N        -0.490   
         N363      6.0766666666667e-01           2.5466666666667e-01           7.6700000000000e-01          N        -0.490   
         N364      8.0800000000000e-01           2.6066666666667e-01           7.1800000000000e-01          N        -0.490   
         N365      7.3100000000000e-01           2.8133333333333e-01           8.4033333333333e-01          N        -0.490   
         C366      6.9366666666667e-01           2.4300000000000e-01           6.8200000000000e-01          C        -0.510   
         C367      6.4566666666667e-01           2.5566666666667e-01           7.5766666666667e-01          C        -0.510   
         C368      7.0266666666667e-01           3.2000000000000e-01           7.2866666666667e-01          C        -0.510   
         C369      7.1333333333333e-01           1.9533333333333e-01           7.5633333333333e-01          C        -0.510   
         C370      7.7000000000000e-01           2.5966666666667e-01           7.2733333333333e-01          C        -0.510   
         C371      7.2233333333333e-01           2.7233333333333e-01           8.0333333333333e-01          C        -0.510   
         Co372     7.0800000000000e-01           2.5766666666667e-01           7.4266666666667e-01          Co       3.000    
         N373      2.8566666666667e-01           9.7833333333333e-01           3.7000000000000e-01          N        -0.490   
         N374      2.3766666666667e-01           1.0363333333333e+00           4.9533333333333e-01          N        -0.490   
         N375      3.6333333333333e-01           8.8033333333333e-01           4.4500000000000e-01          N        -0.490   
         N376      2.2000000000000e-01           8.9366666666667e-01           4.6933333333333e-01          N        -0.490   
         N377      3.8100000000000e-01           1.0230000000000e+00           4.7100000000000e-01          N        -0.490   
         N378      3.1533333333333e-01           9.3833333333333e-01           5.7033333333333e-01          N        -0.490   
         C379      2.9133333333333e-01           9.7100000000000e-01           4.0800000000000e-01          C        -0.510   
         C380      2.5066666666667e-01           9.1833333333333e-01           4.6966666666667e-01          C        -0.510   
         C381      2.6133333333333e-01           1.0066666666667e+00           4.8566666666667e-01          C        -0.510   
         C382      3.3966666666667e-01           9.1000000000000e-01           4.5466666666667e-01          C        -0.510   
         C383      3.5033333333333e-01           9.9833333333333e-01           4.7066666666667e-01          C        -0.510   
         C384      3.0966666666667e-01           9.4600000000000e-01           5.3233333333333e-01          C        -0.510   
         Co385     3.0066666666667e-01           9.5833333333333e-01           4.7033333333333e-01          Co       3.000    
         N386      6.2466666666667e-01           9.1300000000000e-01           5.3100000000000e-01          N        -0.490   
         N387      4.8433333333333e-01           9.1733333333333e-01           5.7033333333333e-01          N        -0.490   
         N388      5.8700000000000e-01           9.4233333333333e-01           3.9300000000000e-01          N        -0.490   
         N389      5.4400000000000e-01           1.0310000000000e+00           5.0100000000000e-01          N        -0.490   
         N390      5.2700000000000e-01           8.2866666666667e-01           4.6233333333333e-01          N        -0.490   
         N391      4.4666666666667e-01           9.4666666666667e-01           4.3233333333333e-01          N        -0.490   
         C392      5.9100000000000e-01           9.1933333333333e-01           5.1233333333333e-01          C        -0.510   
         C393      5.4100000000000e-01           9.9266666666667e-01           4.9366666666667e-01          C        -0.510   
         C394      5.0366666666667e-01           9.2200000000000e-01           5.3666666666667e-01          C        -0.510   
         C395      5.6766666666667e-01           9.3766666666667e-01           4.2666666666667e-01          C        -0.510   
         C396      5.3033333333333e-01           8.6700000000000e-01           4.6966666666667e-01          C        -0.510   
         C397      4.8033333333333e-01           9.4033333333333e-01           4.5100000000000e-01          C        -0.510   
         Co398     5.3566666666667e-01           9.3000000000000e-01           4.8166666666667e-01          Co       3.000    
         N399      5.3733333333333e-01           9.0133333333333e-01           8.8066666666667e-01          N        -0.490   
         N400      4.3800000000000e-01           9.7200000000000e-01           8.0033333333333e-01          N        -0.490   
         N401      6.4266666666667e-01           9.8366666666667e-01           8.2200000000000e-01          N        -0.490   
         N402      5.2833333333333e-01           1.0470000000000e+00           8.8666666666667e-01          N        -0.490   
         N403      5.5233333333333e-01           9.0866666666667e-01           7.3566666666667e-01          N        -0.490   
         N404      5.4333333333333e-01           1.0540000000000e+00           7.4166666666667e-01          N        -0.490   
         C405      5.3833333333333e-01           9.3033333333333e-01           8.5433333333333e-01          C        -0.510   
         C406      5.3300000000000e-01           1.0206666666667e+00           8.5833333333333e-01          C        -0.510   
         C407      4.7666666666667e-01           9.7433333333333e-01           8.0433333333333e-01          C        -0.510   
         C408      6.0400000000000e-01           9.8133333333333e-01           8.1800000000000e-01          C        -0.510   
         C409      5.4766666666667e-01           9.3466666666667e-01           7.6433333333333e-01          C        -0.510   
         C410      5.4233333333333e-01           1.0253333333333e+00           7.6800000000000e-01          C        -0.510   
         Co411     5.4033333333333e-01           9.7766666666667e-01           8.1133333333333e-01          Co       3.000    
         N412      8.2666666666667e-01           4.0466666666667e-01           3.1066666666667e-01          N        -0.490   
         N413      7.8100000000000e-01           4.9033333333333e-01           2.0166666666667e-01          N        -0.490   
         N414      9.5633333333333e-01           3.9066666666667e-01           2.4533333333333e-01          N        -0.490   
         N415      9.0333333333333e-01           5.2333333333333e-01           2.7433333333333e-01          N        -0.490   
         N416      8.3400000000000e-01           3.5766666666667e-01           1.7266666666667e-01          N        -0.490   
         N417      9.1066666666667e-01           4.7633333333333e-01           1.3633333333333e-01          N        -0.490   
         C418      8.4266666666667e-01           4.1833333333333e-01           2.7766666666667e-01          C        -0.510   
         C419      8.9033333333333e-01           4.9200000000000e-01           2.5500000000000e-01          C        -0.510   
         C420      8.1433333333333e-01           4.7166666666667e-01           2.1000000000000e-01          C        -0.510   
         C421      9.2300000000000e-01           4.0933333333333e-01           2.3700000000000e-01          C        -0.510   
         C422      8.4733333333333e-01           3.8900000000000e-01           1.9200000000000e-01          C        -0.510   
         C423      8.9500000000000e-01           4.6266666666667e-01           1.6933333333333e-01          C        -0.510   
         Co424     8.6866666666667e-01           4.4066666666667e-01           2.2333333333333e-01          Co       3.000    
         N425      8.3066666666667e-01           3.6300000000000e-01           5.8200000000000e-01          N        -0.490   
         N426      9.6833333333333e-01           4.0700000000000e-01           5.6133333333333e-01          N        -0.490   
         N427      7.9500000000000e-01           4.9666666666667e-01           6.2933333333333e-01          N        -0.490   
         N428      8.5833333333333e-01           4.7966666666667e-01           4.9900000000000e-01          N        -0.490   
         N429      9.0500000000000e-01           4.2366666666667e-01           6.9200000000000e-01          N        -0.490   
         N430      9.3266666666667e-01           5.4033333333333e-01           6.0866666666667e-01          N        -0.490   
         C431      8.5000000000000e-01           3.9666666666667e-01           5.8700000000000e-01          C        -0.510   
         C432      8.6700000000000e-01           4.6900000000000e-01           5.3533333333333e-01          C        -0.510   
         C433      9.3533333333333e-01           4.2400000000000e-01           5.7433333333333e-01          C        -0.510   
         C434      8.2800000000000e-01           4.7966666666667e-01           6.1633333333333e-01          C        -0.510   
         C435      8.9600000000000e-01           4.3433333333333e-01           6.5533333333333e-01          C        -0.510   
         C436      9.1333333333333e-01           5.0666666666667e-01           6.0366666666667e-01          C        -0.510   
         Co437     8.8166666666667e-01           4.5166666666667e-01           5.9533333333333e-01          Co       3.000    
         N438      1.4000000000000e-02           4.6500000000000e-01           5.5366666666667e-01          N        -0.490   
         N439      -4.0333333333333e-02          5.9966666666667e-01           5.3900000000000e-01          N        -0.490   
         N440      1.4800000000000e-01           5.2066666666667e-01           5.6866666666667e-01          N        -0.490   
         N441      4.0000000000000e-02           5.6566666666667e-01           6.5600000000000e-01          N        -0.490   
         N442      6.7666666666667e-02           5.5466666666667e-01           4.5166666666667e-01          N        -0.490   
         N443      9.3666666666667e-02           6.5533333333333e-01           5.5400000000000e-01          N        -0.490   
         C444      2.9333333333333e-02           5.0100000000000e-01           5.5400000000000e-01          C        -0.510   
         C445      4.5333333333333e-02           5.6366666666667e-01           6.1733333333333e-01          C        -0.510   
         C446      -4.6666666666667e-03          5.8466666666667e-01           5.4466666666667e-01          C        -0.510   
         C447      1.1233333333333e-01           5.3566666666667e-01           5.6333333333333e-01          C        -0.510   
         C448      6.2333333333333e-02           5.5666666666667e-01           4.9066666666667e-01          C        -0.510   
         C449      7.8666666666667e-02           6.1933333333333e-01           5.5400000000000e-01          C        -0.510   
         Co450     5.4000000000000e-02           5.6000000000000e-01           5.5400000000000e-01          Co       3.000    
         N451      4.7633333333333e-01           5.6733333333333e-01           8.0933333333333e-01          N        -0.490   
         N452      5.2700000000000e-01           5.5900000000000e-01           9.4600000000000e-01          N        -0.490   
         N453      4.1400000000000e-01           6.9566666666667e-01           8.4000000000000e-01          N        -0.490   
         N454      5.5666666666667e-01           6.7633333333333e-01           8.6400000000000e-01          N        -0.490   
         N455      3.8433333333333e-01           5.7833333333333e-01           9.2200000000000e-01          N        -0.490   
         N456      4.6466666666667e-01           6.8733333333333e-01           9.7666666666667e-01          N        -0.490   
         C457      4.7400000000000e-01           5.9000000000000e-01           8.4100000000000e-01          C        -0.510   
         C458      5.2400000000000e-01           6.5766666666667e-01           8.7500000000000e-01          C        -0.510   
         C459      5.0533333333333e-01           5.8500000000000e-01           9.2600000000000e-01          C        -0.510   
         C460      4.3533333333333e-01           6.6966666666667e-01           8.6000000000000e-01          C        -0.510   
         C461      4.1700000000000e-01           5.9700000000000e-01           9.1100000000000e-01          C        -0.510   
         C462      4.6666666666667e-01           6.6466666666667e-01           9.4500000000000e-01          C        -0.510   
         Co463     4.7033333333333e-01           6.2733333333333e-01           8.9300000000000e-01          Co       3.000    
         N464      7.1933333333333e-01           3.6700000000000e-01           6.4100000000000e-01          N        -0.490   
         N465      6.4433333333333e-01           2.4766666666667e-01           6.0300000000000e-01          N        -0.490   
         N466      5.9400000000000e-01           4.3666666666667e-01           6.6966666666667e-01          N        -0.490   
         N467      6.2266666666667e-01           3.0866666666667e-01           7.3366666666667e-01          N        -0.490   
         N468      6.1566666666667e-01           3.7566666666667e-01           5.3866666666667e-01          N        -0.490   
         N469      5.1933333333333e-01           3.1733333333333e-01           6.3133333333333e-01          N        -0.490   
         C470      6.8133333333333e-01           3.5766666666667e-01           6.3933333333333e-01          C        -0.510   
         C471      6.2133333333333e-01           3.2133333333333e-01           6.9666666666667e-01          C        -0.510   
         C472      6.3500000000000e-01           2.8366666666667e-01           6.1566666666667e-01          C        -0.510   
         C473      6.0366666666667e-01           4.0066666666667e-01           6.5700000000000e-01          C        -0.510   
         C474      6.1700000000000e-01           3.6300000000000e-01           5.7566666666667e-01          C        -0.510   
         C475      5.5700000000000e-01           3.2666666666667e-01           6.3300000000000e-01          C        -0.510   
         Co476     6.1933333333333e-01           3.4200000000000e-01           6.3633333333333e-01          Co       3.000    
         N477      4.5566666666667e-01           3.5433333333333e-01           7.8133333333333e-01          N        -0.490   
         N478      4.3333333333333e-01           3.2933333333333e-01           6.3933333333333e-01          N        -0.490   
         N479      4.8133333333333e-01           2.1233333333333e-01           8.0266666666667e-01          N        -0.490   
         N480      5.5766666666667e-01           2.8600000000000e-01           7.0266666666667e-01          N        -0.490   
         N481      3.5700000000000e-01           2.5566666666667e-01           7.3933333333333e-01          N        -0.490   
         N482      4.5866666666667e-01           1.8700000000000e-01           6.6066666666667e-01          N        -0.490   
         C483      4.5633333333333e-01           3.2266666666667e-01           7.5866666666667e-01          C        -0.510   
         C484      5.1966666666667e-01           2.8033333333333e-01           7.0966666666667e-01          C        -0.510   
         C485      4.4233333333333e-01           3.0700000000000e-01           6.7033333333333e-01          C        -0.510   
         C486      4.7200000000000e-01           2.3433333333333e-01           7.7166666666667e-01          C        -0.510   
         C487      3.9500000000000e-01           2.6133333333333e-01           7.3266666666667e-01          C        -0.510   
         C488      4.5833333333333e-01           2.1866666666667e-01           6.8333333333333e-01          C        -0.510   
         Co489     4.5733333333333e-01           2.7066666666667e-01           7.2100000000000e-01          Co       3.000    
         N490      7.1233333333333e-01           2.7100000000000e-01           9.4733333333333e-01          N        -0.490   
         N491      5.7166666666667e-01           3.0166666666667e-01           9.7066666666667e-01          N        -0.490   
         N492      6.7600000000000e-01           1.3700000000000e-01           9.0266666666667e-01          N        -0.490   
         N493      6.1500000000000e-01           2.5366666666667e-01           8.3966666666667e-01          N        -0.490   
         N494      6.3233333333333e-01           1.8466666666667e-01           1.0333333333333e+00          N        -0.490   
         N495      5.3500000000000e-01           1.6733333333333e-01           9.2600000000000e-01          N        -0.490   
         C496      6.7866666666667e-01           2.5133333333333e-01           9.4333333333333e-01          C        -0.510   
         C497      6.1833333333333e-01           2.4066666666667e-01           8.7633333333333e-01          C        -0.510   
         C498      5.9133333333333e-01           2.7033333333333e-01           9.5766666666667e-01          C        -0.510   
         C499      6.5600000000000e-01           1.6800000000000e-01           9.1533333333333e-01          C        -0.510   
         C500      6.2900000000000e-01           1.9766666666667e-01           9.9666666666667e-01          C        -0.510   
         C501      5.6866666666667e-01           1.8700000000000e-01           9.3000000000000e-01          C        -0.510   
         Co502     6.2366666666667e-01           2.1933333333333e-01           9.3666666666667e-01          Co       3.000    
         N503      5.2966666666667e-01           8.8666666666667e-01           2.0866666666667e-01          N        -0.490   
         N504      6.1566666666667e-01           9.7300000000000e-01           1.2800000000000e-01          N        -0.490   
         N505      6.0000000000000e-01           7.6933333333333e-01           1.5766666666667e-01          N        -0.490   
         N506      6.7500000000000e-01           8.7733333333333e-01           2.2100000000000e-01          N        -0.490   
         N507      5.4066666666667e-01           8.6500000000000e-01           6.4666666666667e-02          N        -0.490   
         N508      6.8566666666667e-01           8.5566666666667e-01           7.7000000000000e-02          N        -0.490   
         C509      5.5933333333333e-01           8.8066666666667e-01           1.8366666666667e-01          C        -0.510   
         C510      6.4933333333333e-01           8.7500000000000e-01           1.9133333333333e-01          C        -0.510   
         C511      6.1266666666667e-01           9.3433333333333e-01           1.3366666666667e-01          C        -0.510   
         C512      6.0300000000000e-01           8.0800000000000e-01           1.5200000000000e-01          C        -0.510   
         C513      5.6600000000000e-01           8.6733333333333e-01           9.4333333333333e-02          C        -0.510   
         C514      6.5633333333333e-01           8.6166666666667e-01           1.0200000000000e-01          C        -0.510   
         Co515     6.0766666666667e-01           8.7133333333333e-01           1.4300000000000e-01          Co       3.000    
         N516      4.5333333333333e-01           4.3400000000000e-01           3.2433333333333e-01          N        -0.490   
         N517      5.1266666666667e-01           3.1466666666667e-01           2.6533333333333e-01          N        -0.490   
         N518      3.2100000000000e-01           3.7266666666667e-01           3.1566666666667e-01          N        -0.490   
         N519      4.2933333333333e-01           3.0300000000000e-01           3.8466666666667e-01          N        -0.490   
         N520      4.0433333333333e-01           3.8400000000000e-01           1.9633333333333e-01          N        -0.490   
         N521      3.8033333333333e-01           2.5333333333333e-01           2.5633333333333e-01          N        -0.490   
         C522      4.3933333333333e-01           3.9966666666667e-01           3.1166666666667e-01          C        -0.510   
         C523      4.2466666666667e-01           3.1833333333333e-01           3.4900000000000e-01          C        -0.510   
         C524      4.7633333333333e-01           3.2566666666667e-01           2.7466666666667e-01          C        -0.510   
         C525      3.5733333333333e-01           3.6166666666667e-01           3.0633333333333e-01          C        -0.510   
         C526      4.0900000000000e-01           3.6866666666667e-01           2.3200000000000e-01          C        -0.510   
         C527      3.9433333333333e-01           2.8733333333333e-01           2.6933333333333e-01          C        -0.510   
         Co528     4.1666666666667e-01           3.4366666666667e-01           2.9033333333333e-01          Co       3.000    
         N529      9.8133333333333e-01           7.4866666666667e-01           2.6966666666667e-01          N        -0.490   
         N530      8.3933333333333e-01           7.2633333333333e-01           2.4500000000000e-01          N        -0.490   
         N531      1.0060000000000e+00           6.0533333333333e-01           2.5766666666667e-01          N        -0.490   
         N532      9.3833333333333e-01           6.7733333333333e-01           1.5000000000000e-01          N        -0.490   
         N533      9.0666666666667e-01           6.5433333333333e-01           3.5266666666667e-01          N        -0.490   
         N534      8.6400000000000e-01           5.8300000000000e-01           2.3300000000000e-01          N        -0.490   
         C535      9.5900000000000e-01           7.1733333333333e-01           2.6266666666667e-01          C        -0.510   
         C536      9.3233333333333e-01           6.7300000000000e-01           1.8833333333333e-01          C        -0.510   
         C537      8.7066666666667e-01           7.0333333333333e-01           2.4733333333333e-01          C        -0.510   
         C538      9.7433333333333e-01           6.2833333333333e-01           2.5533333333333e-01          C        -0.510   
         C539      9.1266666666667e-01           6.5866666666667e-01           3.1433333333333e-01          C        -0.510   
         C540      8.8633333333333e-01           6.1433333333333e-01           2.4000000000000e-01          C        -0.510   
         Co541     9.2266666666667e-01           6.6566666666667e-01           2.5133333333333e-01          Co       3.000    
         N542      9.8966666666667e-01           3.0866666666667e-01           4.8800000000000e-01          N        -0.490   
         N543      9.9833333333333e-01           3.5966666666667e-01           3.5166666666667e-01          N        -0.490   
         N544      8.9800000000000e-01           4.1700000000000e-01           5.2266666666667e-01          N        -0.490   
         N545      8.6800000000000e-01           3.2900000000000e-01           4.0966666666667e-01          N        -0.490   
         N546      1.0283333333333e+00           4.4733333333333e-01           4.6433333333333e-01          N        -0.490   
         N547      9.0666666666667e-01           4.6800000000000e-01           3.8600000000000e-01          N        -0.490   
         C548      9.7400000000000e-01           3.3900000000000e-01           4.6866666666667e-01          C        -0.510   
         C549      8.9833333333333e-01           3.5166666666667e-01           4.2000000000000e-01          C        -0.510   
         C550      9.7933333333333e-01           3.7066666666667e-01           3.8400000000000e-01          C        -0.510   
         C551      9.1700000000000e-01           4.0600000000000e-01           4.9000000000000e-01          C        -0.510   
         C552      9.9800000000000e-01           4.2500000000000e-01           4.5400000000000e-01          C        -0.510   
         C553      9.2233333333333e-01           4.3766666666667e-01           4.0533333333333e-01          C        -0.510   
         Co554     9.4833333333333e-01           3.8833333333333e-01           4.3700000000000e-01          Co       3.000    
         N555      1.2100000000000e-01           3.0066666666667e-01           7.5000000000000e-01          N        -0.490   
         N556      -1.5666666666667e-02          3.4466666666667e-01           7.2400000000000e-01          N        -0.490   
         N557      1.5433333333333e-01           4.3400000000000e-01           8.0000000000000e-01          N        -0.490   
         N558      4.2000000000000e-02           3.6033333333333e-01           8.5700000000000e-01          N        -0.490   
         N559      9.6666666666667e-02           4.1833333333333e-01           6.6666666666667e-01          N        -0.490   
         N560      1.7333333333333e-02           4.7766666666667e-01           7.7400000000000e-01          N        -0.490   
         C561      1.0133333333333e-01           3.3433333333333e-01           7.5433333333333e-01          C        -0.510   
         C562      5.2333333333333e-02           3.7133333333333e-01           8.2100000000000e-01          C        -0.510   
         C563      1.6333333333333e-02           3.6166666666667e-01           7.3833333333333e-01          C        -0.510   
         C564      1.2200000000000e-01           4.1700000000000e-01           7.8566666666667e-01          C        -0.510   
         C565      8.6333333333333e-02           4.0733333333333e-01           7.0266666666667e-01          C        -0.510   
         C566      3.7000000000000e-02           4.4433333333333e-01           7.6933333333333e-01          C        -0.510   
         Co567     6.9333333333333e-02           3.8933333333333e-01           7.6200000000000e-01          Co       3.000    
         N568      6.0666666666667e-02           9.6600000000000e-01           3.6900000000000e-01          N        -0.490   
         N569      1.5366666666667e-01           8.7200000000000e-01           3.0766666666667e-01          N        -0.490   
         N570      7.5000000000000e-02           8.9666666666667e-01           4.9666666666667e-01          N        -0.490   
         N571      1.9333333333333e-01           9.4633333333333e-01           4.2700000000000e-01          N        -0.490   
         N572      3.5666666666667e-02           8.2266666666667e-01           3.7733333333333e-01          N        -0.490   
         N573      1.6800000000000e-01           8.0266666666667e-01           4.3500000000000e-01          N        -0.490   
         C574      8.1000000000000e-02           9.3500000000000e-01           3.8166666666667e-01          C        -0.510   
         C575      1.6333333333333e-01           9.2266666666667e-01           4.1766666666667e-01          C        -0.510   
         C576      1.3900000000000e-01           8.7666666666667e-01           3.4333333333333e-01          C        -0.510   
         C577      9.0000000000000e-02           8.9200000000000e-01           4.6100000000000e-01          C        -0.510   
         C578      6.5333333333333e-02           8.4600000000000e-01           3.8666666666667e-01          C        -0.510   
         C579      1.4766666666667e-01           8.3366666666667e-01           4.2266666666667e-01          C        -0.510   
         Co580     1.1433333333333e-01           8.8433333333333e-01           4.0200000000000e-01          Co       3.000
loop_
  _geom_bond_atom_site_label_1
  _geom_bond_atom_site_label_2
  _geom_bond_distance
  _ccdc_geom_bond_type
         N61       C67       1.173     S         
         N62       C69       1.173     S         
         N63       C70       1.173     S         
         N64       C68       1.173     S         
         N65       C71       1.173     S         
         N66       C72       1.173     S         
         C67       Co73      1.923     S         
         C68       Co73      1.923     S         
         C69       Co73      1.923     S         
         C70       Co73      1.923     S         
         C71       Co73      1.923     S         
         C72       Co73      1.923     S         
         N74       C80       1.173     S         
         N75       C82       1.173     S         
         N76       C83       1.173     S         
         N77       C81       1.173     S         
         N78       C84       1.173     S         
         N79       C85       1.173     S         
         C80       Co86      1.923     S         
         C81       Co86      1.923     S         
         C82       Co86      1.923     S         
         C83       Co86      1.923     S         
         C84       Co86      1.923     S         
         C85       Co86      1.923     S         
         N87       C93       1.173     S         
         N88       C95       1.173     S         
         N89       C96       1.173     S         
         N90       C94       1.173     S         
         N91       C97       1.173     S         
         N92       C98       1.173     S         
         C93       Co99      1.923     S         
         C94       Co99      1.923     S         
         C95       Co99      1.923     S         
         C96       Co99      1.923     S         
         C97       Co99      1.923     S         
         C98       Co99      1.923     S         
         N100      C106      1.173     S         
         N101      C108      1.173     S         
         N102      C109      1.173     S         
         N103      C107      1.173     S         
         N104      C110      1.173     S         
         N105      C111      1.173     S         
         C106      Co112     1.923     S         
         C107      Co112     1.923     S         
         C108      Co112     1.923     S         
         C109      Co112     1.923     S         
         C110      Co112     1.923     S         
         C111      Co112     1.923     S         
         N113      C119      1.173     S         
         N114      C121      1.173     S         
         N115      C122      1.173     S         
         N116      C120      1.173     S         
         N117      C123      1.173     S         
         N118      C124      1.173     S         
         C119      Co125     1.923     S         
         C120      Co125     1.923     S         
         C121      Co125     1.923     S         
         C122      Co125     1.923     S         
         C123      Co125     1.923     S         
         C124      Co125     1.923     S         
         N126      C132      1.173     S         
         N127      C134      1.173     S         
         N128      C135      1.173     S         
         N129      C133      1.173     S         
         N130      C136      1.173     S         
         N131      C137      1.173     S         
         C132      Co138     1.923     S         
         C133      Co138     1.923     S         
         C134      Co138     1.923     S         
         C135      Co138     1.923     S         
         C136      Co138     1.923     S         
         C137      Co138     1.923     S         
         N139      C145      1.173     S         
         N140      C147      1.173     S         
         N141      C148      1.173     S         
         N142      C146      1.173     S         
         N143      C149      1.173     S         
         N144      C150      1.173     S         
         C145      Co151     1.923     S         
         C146      Co151     1.923     S         
         C147      Co151     1.923     S         
         C148      Co151     1.923     S         
         C149      Co151     1.923     S         
         C150      Co151     1.923     S         
         N152      C158      1.173     S         
         N153      C160      1.173     S         
         N154      C161      1.173     S         
         N155      C159      1.173     S         
         N156      C162      1.173     S         
         N157      C163      1.173     S         
         C158      Co164     1.923     S         
         C159      Co164     1.923     S         
         C160      Co164     1.923     S         
         C161      Co164     1.923     S         
         C162      Co164     1.923     S         
         C163      Co164     1.923     S         
         N165      C171      1.173     S         
         N166      C173      1.173     S         
         N167      C174      1.173     S         
         N168      C172      1.173     S         
         N169      C175      1.173     S         
         N170      C176      1.173     S         
         C171      Co177     1.923     S         
         C172      Co177     1.923     S         
         C173      Co177     1.923     S         
         C174      Co177     1.923     S         
         C175      Co177     1.923     S         
         C176      Co177     1.923     S         
         N178      C184      1.173     S         
         N179      C186      1.173     S         
         N180      C187      1.173     S         
         N181      C185      1.173     S         
         N182      C188      1.173     S         
         N183      C189      1.173     S         
         C184      Co190     1.923     S         
         C185      Co190     1.923     S         
         C186      Co190     1.923     S         
         C187      Co190     1.923     S         
         C188      Co190     1.923     S         
         C189      Co190     1.923     S         
         N191      C197      1.173     S         
         N192      C199      1.173     S         
         N193      C200      1.173     S         
         N194      C198      1.173     S         
         N195      C201      1.173     S         
         N196      C202      1.173     S         
         C197      Co203     1.923     S         
         C198      Co203     1.923     S         
         C199      Co203     1.923     S         
         C200      Co203     1.923     S         
         C201      Co203     1.923     S         
         C202      Co203     1.923     S         
         N204      C210      1.173     S         
         N205      C212      1.173     S         
         N206      C213      1.173     S         
         N207      C211      1.173     S         
         N208      C214      1.173     S         
         N209      C215      1.173     S         
         C210      Co216     1.923     S         
         C211      Co216     1.923     S         
         C212      Co216     1.923     S         
         C213      Co216     1.923     S         
         C214      Co216     1.923     S         
         C215      Co216     1.923     S         
         N217      C223      1.173     S         
         N218      C225      1.173     S         
         N219      C226      1.173     S         
         N220      C224      1.173     S         
         N221      C227      1.173     S         
         N222      C228      1.173     S         
         C223      Co229     1.923     S         
         C224      Co229     1.923     S         
         C225      Co229     1.923     S         
         C226      Co229     1.923     S         
         C227      Co229     1.923     S         
         C228      Co229     1.923     S         
         N230      C236      1.173     S         
         N231      C238      1.173     S         
         N232      C239      1.173     S         
         N233      C237      1.173     S         
         N234      C240      1.173     S         
         N235      C241      1.173     S         
         C236      Co242     1.923     S         
         C237      Co242     1.923     S         
         C238      Co242     1.923     S         
         C239      Co242     1.923     S         
         C240      Co242     1.923     S         
         C241      Co242     1.923     S         
         N243      C249      1.173     S         
         N244      C251      1.173     S         
         N245      C252      1.173     S         
         N246      C250      1.173     S         
         N247      C253      1.173     S         
         N248      C254      1.173     S         
         C249      Co255     1.923     S         
         C250      Co255     1.923     S         
         C251      Co255     1.923     S         
         C252      Co255     1.923     S         
         C253      Co255     1.923     S         
         C254      Co255     1.923     S         
         N256      C262      1.173     S         
         N257      C264      1.173     S         
         N258      C265      1.173     S         
         N259      C263      1.173     S         
         N260      C266      1.173     S         
         N261      C267      1.173     S         
         C262      Co268     1.923     S         
         C263      Co268     1.923     S         
         C264      Co268     1.923     S         
         C265      Co268     1.923     S         
         C266      Co268     1.923     S         
         C267      Co268     1.923     S         
         N269      C275      1.173     S         
         N270      C277      1.173     S         
         N271      C278      1.173     S         
         N272      C276      1.173     S         
         N273      C279      1.173     S         
         N274      C280      1.173     S         
         C275      Co281     1.923     S         
         C276      Co281     1.923     S         
         C277      Co281     1.923     S         
         C278      Co281     1.923     S         
         C279      Co281     1.923     S         
         C280      Co281     1.923     S         
         N282      C288      1.173     S         
         N283      C290      1.173     S         
         N284      C291      1.173     S         
         N285      C289      1.173     S         
         N286      C292      1.173     S         
         N287      C293      1.173     S         
         C288      Co294     1.923     S         
         C289      Co294     1.923     S         
         C290      Co294     1.923     S         
         C291      Co294     1.923     S         
         C292      Co294     1.923     S         
         C293      Co294     1.923     S         
         N295      C301      1.173     S         
         N296      C303      1.173     S         
         N297      C304      1.173     S         
         N298      C302      1.173     S         
         N299      C305      1.173     S         
         N300      C306      1.173     S         
         C301      Co307     1.923     S         
         C302      Co307     1.923     S         
         C303      Co307     1.923     S         
         C304      Co307     1.923     S         
         C305      Co307     1.923     S         
         C306      Co307     1.923     S         
         N308      C314      1.173     S         
         N309      C316      1.173     S         
         N310      C317      1.173     S         
         N311      C315      1.173     S         
         N312      C318      1.173     S         
         N313      C319      1.173     S         
         C314      Co320     1.923     S         
         C315      Co320     1.923     S         
         C316      Co320     1.923     S         
         C317      Co320     1.923     S         
         C318      Co320     1.923     S         
         C319      Co320     1.923     S         
         N321      C327      1.173     S         
         N322      C329      1.173     S         
         N323      C330      1.173     S         
         N324      C328      1.173     S         
         N325      C331      1.173     S         
         N326      C332      1.173     S         
         C327      Co333     1.923     S         
         C328      Co333     1.923     S         
         C329      Co333     1.923     S         
         C330      Co333     1.923     S         
         C331      Co333     1.923     S         
         C332      Co333     1.923     S         
         N334      C340      1.173     S         
         N335      C342      1.173     S         
         N336      C343      1.173     S         
         N337      C341      1.173     S         
         N338      C344      1.173     S         
         N339      C345      1.173     S         
         C340      Co346     1.923     S         
         C341      Co346     1.923     S         
         C342      Co346     1.923     S         
         C343      Co346     1.923     S         
         C344      Co346     1.923     S         
         C345      Co346     1.923     S         
         N347      C353      1.173     S         
         N348      C355      1.173     S         
         N349      C356      1.173     S         
         N350      C354      1.173     S         
         N351      C357      1.173     S         
         N352      C358      1.173     S         
         C353      Co359     1.923     S         
         C354      Co359     1.923     S         
         C355      Co359     1.923     S         
         C356      Co359     1.923     S         
         C357      Co359     1.923     S         
         C358      Co359     1.923     S         
         N360      C366      1.173     S         
         N361      C368      1.173     S         
         N362      C369      1.173     S         
         N363      C367      1.173     S         
         N364      C370      1.173     S         
         N365      C371      1.173     S         
         C366      Co372     1.923     S         
         C367      Co372     1.923     S         
         C368      Co372     1.923     S         
         C369      Co372     1.923     S         
         C370      Co372     1.923     S         
         C371      Co372     1.923     S         
         N373      C379      1.173     S         
         N374      C381      1.173     S         
         N375      C382      1.173     S         
         N376      C380      1.173     S         
         N377      C383      1.173     S         
         N378      C384      1.173     S         
         C379      Co385     1.923     S         
         C380      Co385     1.923     S         
         C381      Co385     1.923     S         
         C382      Co385     1.923     S         
         C383      Co385     1.923     S         
         C384      Co385     1.923     S         
         N386      C392      1.173     S         
         N387      C394      1.173     S         
         N388      C395      1.173     S         
         N389      C393      1.173     S         
         N390      C396      1.173     S         
         N391      C397      1.173     S         
         C392      Co398     1.923     S         
         C393      Co398     1.923     S         
         C394      Co398     1.923     S         
         C395      Co398     1.923     S         
         C396      Co398     1.923     S         
         C397      Co398     1.923     S         
         N399      C405      1.173     S         
         N400      C407      1.173     S         
         N401      C408      1.173     S         
         N402      C406      1.173     S         
         N403      C409      1.173     S         
         N404      C410      1.173     S         
         C405      Co411     1.923     S         
         C406      Co411     1.923     S         
         C407      Co411     1.923     S         
         C408      Co411     1.923     S         
         C409      Co411     1.923     S         
         C410      Co411     1.923     S         
         N412      C418      1.173     S         
         N413      C420      1.173     S         
         N414      C421      1.173     S         
         N415      C419      1.173     S         
         N416      C422      1.173     S         
         N417      C423      1.173     S         
         C418      Co424     1.923     S         
         C419      Co424     1.923     S         
         C420      Co424     1.923     S         
         C421      Co424     1.923     S         
         C422      Co424     1.923     S         
         C423      Co424     1.923     S         
         N425      C431      1.173     S         
         N426      C433      1.173     S         
         N427      C434      1.173     S         
         N428      C432      1.173     S         
         N429      C435      1.173     S         
         N430      C436      1.173     S         
         C431      Co437     1.923     S         
         C432      Co437     1.923     S         
         C433      Co437     1.923     S         
         C434      Co437     1.923     S         
         C435      Co437     1.923     S         
         C436      Co437     1.923     S         
         N438      C444      1.173     S         
         N439      C446      1.173     S         
         N440      C447      1.173     S         
         N441      C445      1.173     S         
         N442      C448      1.173     S         
         N443      C449      1.173     S         
         C444      Co450     1.923     S         
         C445      Co450     1.923     S         
         C446      Co450     1.923     S         
         C447      Co450     1.923     S         
         C448      Co450     1.923     S         
         C449      Co450     1.923     S         
         N451      C457      1.173     S         
         N452      C459      1.173     S         
         N453      C460      1.173     S         
         N454      C458      1.173     S         
         N455      C461      1.173     S         
         N456      C462      1.173     S         
         C457      Co463     1.923     S         
         C458      Co463     1.923     S         
         C459      Co463     1.923     S         
         C460      Co463     1.923     S         
         C461      Co463     1.923     S         
         C462      Co463     1.923     S         
         N464      C470      1.173     S         
         N465      C472      1.173     S         
         N466      C473      1.173     S         
         N467      C471      1.173     S         
         N468      C474      1.173     S         
         N469      C475      1.173     S         
         C470      Co476     1.923     S         
         C471      Co476     1.923     S         
         C472      Co476     1.923     S         
         C473      Co476     1.923     S         
         C474      Co476     1.923     S         
         C475      Co476     1.923     S         
         N477      C483      1.173     S         
         N478      C485      1.173     S         
         N479      C486      1.173     S         
         N480      C484      1.173     S         
         N481      C487      1.173     S         
         N482      C488      1.173     S         
         C483      Co489     1.923     S         
         C484      Co489     1.923     S         
         C485      Co489     1.923     S         
         C486      Co489     1.923     S         
         C487      Co489     1.923     S         
         C488      Co489     1.923     S         
         N490      C496      1.173     S         
         N491      C498      1.173     S         
         N492      C499      1.173     S         
         N493      C497      1.173     S         
         N494      C500      1.173     S         
         N495      C501      1.173     S         
         C496      Co502     1.923     S         
         C497      Co502     1.923     S         
         C498      Co502     1.923     S         
         C499      Co502     1.923     S         
         C500      Co502     1.923     S         
         C501      Co502     1.923     S         
         N503      C509      1.173     S         
         N504      C511      1.173     S         
         N505      C512      1.173     S         
         N506      C510      1.173     S         
         N507      C513      1.173     S         
         N508      C514      1.173     S         
         C509      Co515     1.923     S         
         C510      Co515     1.923     S         
         C511      Co515     1.923     S         
         C512      Co515     1.923     S         
         C513      Co515     1.923     S         
         C514      Co515     1.923     S         
         N516      C522      1.173     S         
         N517      C524      1.173     S         
         N518      C525      1.173     S         
         N519      C523      1.173     S         
         N520      C526      1.173     S         
         N521      C527      1.173     S         
         C522      Co528     1.923     S         
         C523      Co528     1.923     S         
         C524      Co528     1.923     S         
         C525      Co528     1.923     S         
         C526      Co528     1.923     S         
         C527      Co528     1.923     S         
         N529      C535      1.173     S         
         N530      C537      1.173     S         
         N531      C538      1.173     S         
         N532      C536      1.173     S         
         N533      C539      1.173     S         
         N534      C540      1.173     S         
         C535      Co541     1.923     S         
         C536      Co541     1.923     S         
         C537      Co541     1.923     S         
         C538      Co541     1.923     S         
         C539      Co541     1.923     S         
         C540      Co541     1.923     S         
         N542      C548      1.173     S         
         N543      C550      1.173     S         
         N544      C551      1.173     S         
         N545      C549      1.173     S         
         N546      C552      1.173     S         
         N547      C553      1.173     S         
         C548      Co554     1.923     S         
         C549      Co554     1.923     S         
         C550      Co554     1.923     S         
         C551      Co554     1.923     S         
         C552      Co554     1.923     S         
         C553      Co554     1.923     S         
         N555      C561      1.173     S         
         N556      C563      1.173     S         
         N557      C564      1.173     S         
         N558      C562      1.173     S         
         N559      C565      1.173     S         
         N560      C566      1.173     S         
         C561      Co567     1.923     S         
         C562      Co567     1.923     S         
         C563      Co567     1.923     S         
         C564      Co567     1.923     S         
         C565      Co567     1.923     S         
         C566      Co567     1.923     S         
         N568      C574      1.173     S         
         N569      C576      1.173     S         
         N570      C577      1.173     S         
         N571      C575      1.173     S         
         N572      C578      1.173     S         
         N573      C579      1.173     S         
         C574      Co580     1.923     S         
         C575      Co580     1.923     S         
         C576      Co580     1.923     S         
         C577      Co580     1.923     S         
         C578      Co580     1.923     S         
         C579      Co580     1.923     S 